     153
 i =        0, time =        0.000, E =      -898.2799254016
  O         8.8547036835        0.5426273213        4.2272907174
  H         7.9891646443        0.7354810860        4.6706857962
  H         9.3840214802       -0.0626012289        4.8589389494
  O         5.7342306474       -2.2328242136       13.8975999733
  H         6.6783402926       -1.9086265785       13.9149082048
  H         5.4943745029       -2.5891307461       14.8023174750
  O         2.2624656317        5.4795873405        1.2411241538
  H         1.9105029074        6.2314721897        1.8481725990
  H         2.7294683990        4.9010607214        1.8862815265
  O         5.9593745010       10.2024713294        6.7020427558
  H         6.7107061280        9.9556391680        7.2838897892
  H         5.1200635249       10.2150949618        7.2272658134
  O         5.2768125282        8.5179992791        4.7430448884
  H         5.6653106475        9.0417635367        5.4725380263
  H         5.5731339905        7.5775076769        4.8292097527
  O        -0.2974815691       -2.6665939025        1.5955874680
  H         0.4843997229       -2.0828817364        1.2754375608
  H        -1.0357664476       -2.0684528569        1.9142182648
  O        -1.1315804475        7.1142420346       -0.5446388738
  H        -2.0361683228        7.2249112537       -0.9107986767
  H        -0.8387276332        7.7514128206        0.1418403661
  O         2.8670602848       -2.2673554063       -1.0841135485
  H         3.3537149135       -3.1237191731       -0.9222932118
  H         1.9434351900       -2.4982485859       -1.4377270764
  O        -0.2654689307        4.9079420210        0.4841802988
  H        -0.4513632432        5.7977230658        0.0165507807
  H         0.7003215640        4.9741861129        0.8525724998
  O         7.4116549780        2.9514588980       10.0954870808
  H         6.8342473342        2.9808616865       10.9048732865
  H         8.2751682598        2.7126797953       10.4824464933
  O         0.5052658050        3.6686938398        9.3526730909
  H         0.3133326174        3.9149959321       10.2877585683
  H         0.3404012198        4.4510121398        8.8007578958
  O         6.3771197954        1.0404279430        5.3478441371
  H         6.0192781803        0.2525261232        5.8141902346
  H         5.7068453435        1.3487268891        4.6024871764
  O        -0.4277613723        1.6497819712        2.7623713955
  H        -1.0374724465        1.0021700846        3.1875735273
  H        -1.0318001218        2.4160907250        2.5443633169
  O         3.0106970308        2.9402198516       11.0571888520
  H         3.6259618132        2.1774244302       10.7064397696
  H         2.6920605988        3.4492774252       10.2358548197
  O         1.9321054804       -1.0995332551       12.5278677267
  H         2.3511672982       -1.6460751916       11.7148892259
  H         1.6264509334       -0.1471732380       12.2407785487
  O        -3.0565793557       -1.3892819065        2.2262772142
  H        -3.0006689596       -0.6695190036        2.9047100284
  H        -3.3158498423       -0.8903367790        1.4034927400
  O         9.3175083067        1.9321658575       11.6478736997
  H        10.1708824575        1.6089872163       11.7262656231
  H         9.2504664049        2.5748942519       12.4093765376
  O         4.1052038238       -4.7806381490       -0.1814417932
  H         4.0838281882       -5.2347964424       -1.0683285668
  H         3.4106976540       -5.2844827391        0.2964736908
  O         4.4378820182       -0.0455739221        1.6889621028
  H         3.4996769643       -0.3364840936        1.7081937635
  H         4.9289133701       -0.8715548135        1.9602753082
  O         5.5936292063        1.9066748564        7.9307954378
  H         6.4482175479        2.2044372854        8.4542584871
  H         5.7046185831        1.9941082217        6.9543675609
  O        -0.8667049536       -1.1397935218        5.7494995807
  H        -0.1278277551       -1.1107958857        5.0975181273
  H        -0.5490200737       -0.4705628613        6.3738128372
  O         0.4138652212        4.6885352712        4.9177978195
  H         0.1205437795        5.5738215458        4.4894630207
  H         0.2334236044        4.8455755026        5.9606533871
  O         5.5756453826        3.2962067227        0.6954448655
  H         5.1886943252        2.7329540052        1.4628349474
  H         4.6876240031        3.4579432334        0.2567407596
  O        -3.4769892315       -1.6394230661        8.3125838502
  H        -2.7076855278       -1.6356260483        7.6897554462
  H        -3.3228258520       -2.4213414445        8.9028155133
  O         0.4634261584       -2.6024563324        9.3927594352
  H        -0.1197015709       -3.3063378652        9.8034995177
  H         0.0729073679       -1.6979152311        9.4986532577
  O        -0.5163461836        1.9306711130        7.7196252872
  H        -1.0653255054        2.4977485421        7.1512875686
  H        -0.2085573856        2.5911443258        8.3759528752
  O         6.6252935481        7.2761741270        0.7746091192
  H         5.8791554407        6.7947044198        0.3470867958
  H         6.2688758008        8.0489546151        1.2288606845
  O         3.7402185654       -0.5118318300        8.4977366017
  H         3.5013044882       -1.2052617265        9.2162109345
  H         4.2248419178        0.2062690851        8.9765523688
  O        -1.5644483178        7.6379237666        7.0789333685
  H        -2.0075547926        6.9362782399        6.6183733122
  H        -1.1989382085        8.2388715431        6.4698184535
  O         9.3721195743        3.7603158123        2.0355154738
  H        10.1690238528        4.2103837467        1.6274726453
  H         8.6032957700        4.3693944271        2.1129296703
  O         8.2068432190        5.4858283829        6.5533033278
  H         7.7209540097        5.2981277487        7.4270970609
  H         8.6720278734        4.6525055507        6.2370809860
  O        -3.8785118800       -0.0139952843       11.4173614989
  H        -3.4338502688       -0.4891429146       10.6916340966
  H        -3.2521100707        0.7522186505       11.5382858756
  O         4.8865627382        0.8535063722       10.6566402069
  H         5.8574579095        0.6596724061       10.5236182942
  H         4.6764878528        0.4157090807       11.5383722967
  O         7.0620310732        5.0977457889        2.2604549151
  H         6.8105358093        5.9464397878        1.8459334488
  H         6.4646937954        4.5085647910        1.7819557694
  O         1.3887093425       -1.0245801713        3.9512627316
  H         1.8569476121       -0.1623557276        4.2093456253
  H         1.4348537434       -1.0911138302        2.9440985727
  O         2.5865338390       -3.0097094023        5.3403969531
  H         3.5324713701       -3.0709313660        5.0153468396
  H         2.2204355413       -2.2546462386        4.7884729571
  O        -3.4704650414       -3.7940200087       -1.4054325385
  H        -3.9542140846       -3.8075827297       -0.5575925330
  H        -3.7233755110       -4.6390796545       -1.9246914489
  O         0.9733065825        7.1080392225        3.3521575610
  H         1.5171737589        7.5875172322        4.0358782730
  H         0.2938075603        7.7104307057        3.0142334749
  O         1.6772986133        0.4679777466        7.1706657708
  H         2.4321381854        0.2091198103        7.7361717927
  H         1.2364558010        1.2658259079        7.5059844477
  O        -1.7404136260        3.2020078894        5.5369548632
  H        -2.1142780570        2.5238328341        4.9125585671
  H        -0.9649213836        3.6579188618        5.1579704100
  O         0.3669847470        5.3663561029        7.4784922025
  H         1.1357949829        6.1082574293        7.5621827923
  H        -0.4781773879        5.8318589230        7.5868431053
  O         7.0260795111        5.4063573746        9.1176638620
  H         6.0652572628        5.5663841447        9.1041308148
  H         7.1339556889        4.4086121173        9.4635424840
  O         4.1307002547        5.8112325847        8.7101507982
  H         3.4660562538        6.4189813248        8.2526363579
  H         3.8304481899        4.8827675790        8.4753432617
  O        -0.5935117011       -0.1717666677        9.9790728581
  H        -0.5535216654        0.4253966103        9.1917394617
  H         0.0974301001        0.1956701407       10.4716085938
  O         0.8848636579        1.1981418600        0.5459272084
  H         0.6283019210        1.5622609172        1.4902306256
  H         1.5658536035        1.8412733870        0.2532450962
  O         5.8776516270        5.6641360226        4.6688107086
  H         6.4130484964        5.3664260535        3.8870003760
  H         6.5260746375        5.6012627519        5.4153194655
  O         3.2819359488        3.3538285996        7.9340582366
  H         4.1903383029        2.8162693159        8.1306612921
  H         3.4134202210        3.4816987730        6.9801241052
  O         1.9627979478       -4.0608050206        7.5916330996
  H         1.4497465855       -3.3139060869        8.0280322578
  H         2.2308753389       -3.7060355097        6.6791305913
  O         2.5090716761        1.3498280909        4.7653207611
 Si         3.3152419527        2.6745628532        4.1577104081
  O         3.9537569593        3.6364662441        5.3682298888
  O         4.5016090930        2.1540552945        3.1825006769
  O         2.3431459957        3.6501051885        3.2723270583
  H         2.3016323450        1.1500523115        5.7075041425
  H         4.4050178925        1.2457349209        2.7431902060
  H         1.7993582774        4.2276199914        3.8963077809
  H         4.5476768123        4.4234625630        5.1073219836
     153
 i =        2, time =        1.000, E =      -898.2760900578
  O         8.8601241265        0.5400429233        4.2245903639
  H         7.9926675545        0.7496525865        4.6736577567
  H         9.3882107648       -0.0771486541        4.8601825746
  O         5.7321302501       -2.2324972736       13.8981947558
  H         6.6647567164       -1.8883523265       13.9233487640
  H         5.4837445534       -2.5887881227       14.8013766621
  O         2.2590537099        5.4800853242        1.2420432726
  H         1.9387660520        6.2451683587        1.8632050919
  H         2.7231323185        4.8958263844        1.8829195570
  O         5.9613016033       10.2022691671        6.7051534797
  H         6.7263630666        9.9489980928        7.2977310087
  H         5.1268241616       10.2117643984        7.2247400749
  O         5.2732763580        8.5208651929        4.7413392826
  H         5.6747856286        9.0608617956        5.4786484968
  H         5.5850628366        7.5876112482        4.8383136362
  O        -0.3001962533       -2.6739017060        1.5897489109
  H         0.4689052078       -2.0994350039        1.2695195490
  H        -1.0488549903       -2.0405761624        1.9217194753
  O        -1.1323196275        7.1148325754       -0.5375121548
  H        -2.0456330303        7.2406944039       -0.9250769093
  H        -0.8501900174        7.7174988523        0.1424816669
  O         2.8682071703       -2.2626382666       -1.0902209215
  H         3.3484594227       -3.1123839933       -0.9182594890
  H         1.9440127589       -2.4746131259       -1.3920266604
  O        -0.2720534984        4.9081123716        0.4794812711
  H        -0.4301835111        5.7992757896        0.0216952398
  H         0.6803629447        4.9520989831        0.8384518489
  O         7.4115497494        2.9557810171       10.0977950608
  H         6.8242635787        2.9904877841       10.9026643102
  H         8.2907913901        2.7068100407       10.4821137153
  O         0.5027150443        3.6703461490        9.3534859337
  H         0.2950432036        3.9105387528       10.2861863530
  H         0.3450585240        4.4463260174        8.7959167729
  O         6.3712390269        1.0431118741        5.3460143366
  H         6.0309128990        0.2314494797        5.7942883957
  H         5.6865394667        1.3567342667        4.5990971558
  O        -0.4247180285        1.6457685375        2.7612935349
  H        -1.0216643260        0.9754629690        3.1931844515
  H        -1.0162068519        2.4248944861        2.5373112576
  O         3.0100906610        2.9368844047       11.0527045245
  H         3.6194240448        2.1774686417       10.7083657752
  H         2.6868222973        3.4755262737       10.2762022690
  O         1.9353924552       -1.1001266342       12.5237049105
  H         2.3580708539       -1.6210441209       11.7049862395
  H         1.6272220428       -0.1507667800       12.2118261234
  O        -3.0577222813       -1.3832529321        2.2261729435
  H        -2.9959325913       -0.6581404984        2.8978655152
  H        -3.3263330743       -0.8773066920        1.3992991118
  O         9.3189056203        1.9379845752       11.6431617574
  H        10.1894159742        1.6067805308       11.7267192106
  H         9.2502859026        2.5668508386       12.3969688770
  O         4.1022428162       -4.7768599934       -0.1828097192
  H         4.0769517966       -5.2291153431       -1.0437801093
  H         3.4121078342       -5.2700809108        0.3077033893
  O         4.4429507019       -0.0465074965        1.6851656346
  H         3.5010087240       -0.3277334732        1.7169413426
  H         4.8956653040       -0.8714826871        1.9663802370
  O         5.5916816920        1.9083951468        7.9327072408
  H         6.4181561368        2.1942499089        8.4151186531
  H         5.6758651756        1.9819569725        6.9397638505
  O        -0.8662480605       -1.1330429950        5.7457407800
  H        -0.1211188643       -1.1066624603        5.0803638632
  H        -0.5421657533       -0.4374271490        6.3920004754
  O         0.4156879992        4.6905563923        4.9160730617
  H         0.1305366149        5.5809351832        4.5090547016
  H         0.2305269540        4.8322014738        5.9274794371
  O         5.5754520613        3.3004188942        0.6946877816
  H         5.1916729281        2.7253540666        1.4519614020
  H         4.6948039717        3.4458582279        0.2693395911
  O        -3.4750925873       -1.6329595038        8.3125913332
  H        -2.7145737023       -1.6423665847        7.6966874021
  H        -3.3050492169       -2.4206183466        8.9289769295
  O         0.4608762216       -2.6051626378        9.3951810051
  H        -0.1177966842       -3.3005651925        9.8027809360
  H         0.0749386947       -1.6822307691        9.5007704187
  O        -0.5169250146        1.9293482055        7.7211748261
  H        -1.0633672436        2.5065646865        7.1497412649
  H        -0.1946911212        2.5828451620        8.3814941701
  O         6.6238071978        7.2789764124        0.7758276072
  H         5.8917717743        6.8000466172        0.3449755857
  H         6.2635904532        8.0560674273        1.2186988884
  O         3.7402984060       -0.5177278537        8.4954428817
  H         3.5025342832       -1.1998963385        9.2114482328
  H         4.2189633492        0.2027065734        8.9798031427
  O        -1.5747442726        7.6435910884        7.0788548886
  H        -2.0078500565        6.9191213888        6.6119167727
  H        -1.1703656673        8.2677918366        6.4715804613
  O         9.3666948526        3.7664664041        2.0388305298
  H        10.1471175739        4.2191833521        1.6025480752
  H         8.5931282089        4.3496056047        2.1196242458
  O         8.2004554231        5.4862501689        6.5537847248
  H         7.7376386988        5.3265630322        7.4405677657
  H         8.6852053408        4.6731093245        6.2542427009
  O        -3.8781821645       -0.0152910566       11.4152435896
  H        -3.4165891471       -0.4849184298       10.6806833913
  H        -3.2522899362        0.7351472068       11.5193273894
  O         4.8872485924        0.8613726562       10.6575900970
  H         5.8689830671        0.6637930696       10.5198750319
  H         4.6946028800        0.3851564607       11.5293872469
  O         7.0679777081        5.0951676351        2.2626275133
  H         6.8218524222        5.9410427097        1.8318666180
  H         6.4914653669        4.5294816433        1.7756696541
  O         1.3870516137       -1.0283992228        3.9537761035
  H         1.8726601416       -0.1418784708        4.1987675946
  H         1.4179571073       -1.0840151882        2.9453463632
  O         2.5842631979       -3.0021462395        5.3403444149
  H         3.5618492216       -3.0756052169        5.0239254626
  H         2.2142560779       -2.2443483642        4.7779691229
  O        -3.4764644755       -3.7952174398       -1.4071198707
  H        -3.9755799918       -3.8089090947       -0.5472251724
  H        -3.7269047893       -4.6459651275       -1.9035701393
  O         0.9732712629        7.1063527978        3.3456211712
  H         1.5098523079        7.6047077865        4.0112527966
  H         0.2950178889        7.7184191665        2.9904520267
  O         1.6778631650        0.4691887919        7.1695180537
  H         2.4218184231        0.1746931312        7.7178033425
  H         1.2139200935        1.2502297558        7.5078867993
  O        -1.7358984437        3.2053742561        5.5357404389
  H        -2.0928613053        2.5377321721        4.9374051826
  H        -0.9763828605        3.6526691808        5.1640101530
  O         0.3676943099        5.3687231497        7.4794586499
  H         1.1648090285        6.1561045945        7.5704218648
  H        -0.4878282346        5.8358118054        7.5699349554
  O         7.0261898026        5.4050818814        9.1166601993
  H         6.0731376765        5.5842206550        9.0837045319
  H         7.1181580855        4.4055894224        9.4532312332
  O         4.1263556370        5.8116402517        8.7126171810
  H         3.5055502742        6.4202608418        8.2405486660
  H         3.8605872442        4.8922393416        8.4386310434
  O        -0.5882152612       -0.1747391539        9.9790087310
  H        -0.5378132257        0.4463614581        9.1951382266
  H         0.1068432784        0.1897802451       10.4703951993
  O         0.8787630748        1.1891274153        0.5548240499
  H         0.6223585891        1.5638571564        1.4853454842
  H         1.5739704573        1.8476331604        0.2443005028
  O         5.8812582859        5.6718418972        4.6650394876
  H         6.4148440298        5.3910222651        3.8918942110
  H         6.5070853130        5.6070719864        5.3856609481
  O         3.2827301480        3.3596855047        7.9332858157
  H         4.1861980748        2.8151371376        8.1171064476
  H         3.4208326817        3.4737715714        6.9637317142
  O         1.9614437664       -4.0570690002        7.5961798227
  H         1.4577928305       -3.3103474001        8.0609183503
  H         2.2443778234       -3.7341117753        6.6774217723
  O         2.5123735953        1.3530776213        4.7636353183
 Si         3.3142334666        2.6769542654        4.1548246268
  O         3.9514649229        3.6359670779        5.3660305855
  O         4.4992252787        2.1514113576        3.1793200771
  O         2.3433066670        3.6496898765        3.2795891341
  H         2.3188312287        1.1660357200        5.7315773066
  H         4.4071463467        1.2204014091        2.7547620163
  H         1.7696626853        4.2315166013        3.9030166785
  H         4.5284998795        4.4071738510        5.0798638640
     153
 i =        4, time =        2.000, E =      -898.2738941910
  O         8.8658965075        0.5370329417        4.2222082264
  H         7.9953742497        0.7624505876        4.6763519348
  H         9.3856870144       -0.0851414640        4.8552593878
  O         5.7301907414       -2.2316711037       13.8976468224
  H         6.6519304010       -1.8695928570       13.9343757844
  H         5.4763577886       -2.5851356061       14.8018909319
  O         2.2555212082        5.4815495031        1.2438492527
  H         1.9697265336        6.2479790040        1.8711242967
  H         2.7134045904        4.8862743085        1.8802870632
  O         5.9628433464       10.2019439118        6.7075844593
  H         6.7416711092        9.9428953420        7.3171606133
  H         5.1342119463       10.2108617518        7.2268771597
  O         5.2695912715        8.5229305096        4.7402487527
  H         5.6842736968        9.0841838061        5.4883173016
  H         5.5970612612        7.5957353495        4.8470876658
  O        -0.3035043983       -2.6802887544        1.5840345870
  H         0.4484659678       -2.1169591617        1.2679365069
  H        -1.0508107386       -2.0238124634        1.9209150066
  O        -1.1321494580        7.1147681521       -0.5313461639
  H        -2.0599363004        7.2623241879       -0.9363098667
  H        -0.8653806516        7.6959425185        0.1564387472
  O         2.8696840095       -2.2580474492       -1.0960013124
  H         3.3423355808       -3.1017501037       -0.9122574078
  H         1.9394760099       -2.4543246115       -1.3503716087
  O        -0.2776913526        4.9082689434        0.4747627202
  H        -0.4143457293        5.7957788965        0.0292929382
  H         0.6517960603        4.9307686544        0.8203391707
  O         7.4112085468        2.9600886601       10.1001314338
  H         6.8123960361        2.9987860692       10.8980835516
  H         8.3077497018        2.7009264852       10.4794332254
  O         0.5004519433        3.6712879160        9.3552450911
  H         0.2730976847        3.9072916438       10.2829955747
  H         0.3517524290        4.4505418468        8.7837740417
  O         6.3644879598        1.0467021300        5.3429242276
  H         6.0426438404        0.2060327432        5.7754581840
  H         5.6828540430        1.3560131629        4.6132953867
  O        -0.4220272013        1.6418601414        2.7601167465
  H        -1.0033306994        0.9564253356        3.1950537908
  H        -0.9988965310        2.4280003358        2.5371603926
  O         3.0098982466        2.9329787138       11.0478180219
  H         3.6056251278        2.1879591411       10.7111777859
  H         2.6833523698        3.4937598809       10.3196432598
  O         1.9386242754       -1.1006634747       12.5189292072
  H         2.3615870798       -1.5875736159       11.7041990140
  H         1.6276824796       -0.1641328365       12.1849205240
  O        -3.0588740245       -1.3769829759        2.2258890397
  H        -2.9891436063       -0.6470692981        2.8934375832
  H        -3.3358669659       -0.8669497861        1.3955950091
  O         9.3192567017        1.9437528378       11.6379804407
  H        10.2272296961        1.5955871209       11.7246992084
  H         9.2462795456        2.5667605233       12.3893610393
  O         4.0996993297       -4.7724553473       -0.1841597510
  H         4.0718069326       -5.2249460524       -1.0302839290
  H         3.4090839129       -5.2565430426        0.3260754098
  O         4.4476105055       -0.0468653212        1.6815333085
  H         3.4981978583       -0.3213993395        1.7222075334
  H         4.8708962370       -0.8803106272        1.9764738680
  O         5.5896089542        1.9104574788        7.9347634278
  H         6.3824789657        2.1825867374        8.3698207193
  H         5.6541194572        1.9682476352        6.9327937472
  O        -0.8654364269       -1.1255537813        5.7421373196
  H        -0.1161018379       -1.1042315573        5.0640845658
  H        -0.5372494769       -0.4112196741        6.4064439694
  O         0.4169622632        4.6933639460        4.9144364155
  H         0.1474123880        5.5760166238        4.5321602991
  H         0.2384213372        4.8211106218        5.8882796424
  O         5.5745563070        3.3041475398        0.6950623898
  H         5.2056842600        2.7249130750        1.4341524477
  H         4.7028715524        3.4369987006        0.2773918829
  O        -3.4727231602       -1.6268046305        8.3128236144
  H        -2.7218350870       -1.6507784449        7.7059239477
  H        -3.2919480462       -2.4176799441        8.9506218138
  O         0.4586773134       -2.6077583899        9.3975137474
  H        -0.1193077598       -3.2933099640        9.8024717284
  H         0.0738044682       -1.6705528327        9.5040728776
  O        -0.5177835995        1.9277570270        7.7227291251
  H        -1.0631506455        2.5119787692        7.1417952473
  H        -0.1771518768        2.5772032584        8.3949004040
  O         6.6229989852        7.2811518369        0.7768368576
  H         5.8942255488        6.8080784330        0.3414642048
  H         6.2500300475        8.0706824445        1.2166432281
  O         3.7405595293       -0.5239925270        8.4933378143
  H         3.5052571172       -1.1888275948        9.2011476766
  H         4.2125712798        0.1954979993        8.9834943040
  O        -1.5848303398        7.6494472507        7.0795114597
  H        -2.0150072628        6.8984977291        6.6006156129
  H        -1.1397953461        8.2999252675        6.4676334926
  O         9.3619928441        3.7718937811        2.0422584334
  H        10.1203770183        4.2352374260        1.5741218078
  H         8.5779121431        4.3363260446        2.1264976126
  O         8.1939959494        5.4865414524        6.5545197683
  H         7.7600303968        5.3551870786        7.4482082647
  H         8.6949402661        4.6929478574        6.2733470713
  O        -3.8777423826       -0.0170517963       11.4127040751
  H        -3.4034850774       -0.4814851873       10.6707554015
  H        -3.2487520815        0.7255339945       11.5033146181
  O         4.8883177502        0.8688181268       10.6585698988
  H         5.8700662341        0.6720764535       10.5194270353
  H         4.7150491827        0.3580418867       11.5156596326
  O         7.0742648012        5.0931004745        2.2656231504
  H         6.8392602791        5.9453327016        1.8165374568
  H         6.5062449706        4.5326947985        1.7602744082
  O         1.3856697860       -1.0314297719        3.9558577063
  H         1.8810462311       -0.1310913653        4.1843681208
  H         1.4024091894       -1.0769445505        2.9560505184
  O         2.5826789594       -2.9945777396        5.3393667761
  H         3.5811925013       -3.0782121641        5.0384662866
  H         2.2079670905       -2.2342081824        4.7730444030
  O        -3.4821098971       -3.7963520245       -1.4093894645
  H        -3.9983611374       -3.8114134736       -0.5352897544
  H        -3.7311891334       -4.6486017312       -1.8764761355
  O         0.9734274260        7.1044739936        3.3393673909
  H         1.5017449148        7.6193385957        3.9859460382
  H         0.2972544443        7.7291817029        2.9623796110
  O         1.6779716914        0.4703117397        7.1673015781
  H         2.4192368560        0.1387728680        7.7073196118
  H         1.1888299698        1.2374235665        7.5127846429
  O        -1.7323015542        3.2086509310        5.5356243029
  H        -2.0700358429        2.5485955078        4.9579491866
  H        -0.9768738003        3.6510370243        5.1590025592
  O         0.3688017370        5.3718352059        7.4805306717
  H         1.1776083177        6.1967465398        7.5751085250
  H        -0.4947334403        5.8449656555        7.5528907197
  O         7.0264638667        5.4025751490        9.1157881892
  H         6.0745935524        5.6034737462        9.0602221619
  H         7.1058166954        4.4150117941        9.4417414655
  O         4.1221444187        5.8122876276        8.7149650844
  H         3.5454365036        6.4207441596        8.2307647130
  H         3.8870810631        4.8978243823        8.4000392299
  O        -0.5837683749       -0.1779312775        9.9773426053
  H        -0.5282759450        0.4626802790        9.1997387710
  H         0.1346655966        0.1931044083       10.4895949920
  O         0.8733326480        1.1810056657        0.5640304789
  H         0.6129544289        1.5560420260        1.4740842943
  H         1.5795378424        1.8517561814        0.2337199807
  O         5.8840590393        5.6796652185        4.6611798337
  H         6.4173874839        5.4145436505        3.8893090409
  H         6.4976696241        5.6115111592        5.3668794494
  O         3.2849128928        3.3651035366        7.9330645147
  H         4.1659318581        2.8222477242        8.1013395544
  H         3.4259231070        3.4681264572        6.9460741656
  O         1.9601950172       -4.0531520123        7.6009374879
  H         1.4679081387       -3.3137502829        8.0908252238
  H         2.2542028364       -3.7589583787        6.6787233889
  O         2.5159836176        1.3565615821        4.7618137750
 Si         3.3129521167        2.6794562580        4.1523353364
  O         3.9493279752        3.6354908297        5.3637514078
  O         4.4973181795        2.1480639959        3.1757509668
  O         2.3431892849        3.6499515812        3.2870328468
  H         2.3343271607        1.1812946925        5.7588914288
  H         4.4110940293        1.2000790906        2.7666852678
  H         1.7418051860        4.2269840645        3.9041625443
  H         4.5079094178        4.3867252020        5.0534625517
