     108
 i =       0, E =       -0.2065178131
 AR        -8.5386901295      -15.5816257771        2.8566367230
 AR         1.5300730483        9.2852817904       11.1777824543
 AR        11.9910225120       -7.4882532957       -9.9654530635
 AR       -12.6782400030       -3.3410587201        4.0747109782
 AR        -1.7704625428       -0.2324594643       13.2012946017
 AR         8.0176137119       -2.5724958773       -4.1272055475
 AR         8.5784951723        4.0139666462        5.5736882198
 AR        -3.8920067928      -10.2930917801       -6.9864023229
 AR        -3.3545716056      -16.1119619277       16.1358515626
 AR         9.7895715510      -16.2628264195       -5.6979085707
 AR         0.5051434954       -4.2297841576       12.4854171634
 AR        15.5632243940       -7.9804890509        2.2099470855
 AR        -5.4074164400       -2.6476445711       -0.6814852126
 AR        -0.0983719068       -1.7367400486       -7.1191554512
 AR         7.5265578133       -5.5296996967      -12.8886150439
 AR        -5.4565541100        0.5644457544        2.0390251010
 AR       -11.8590998267        3.4040744639        3.7268793393
 AR        16.7175362589       -7.4713237735       -1.0227447667
 AR       -20.4572129717       -5.7370080772        4.8184508638
 AR        14.8485522289       -1.4160863305      -16.0839111491
 AR         8.0437947051       -8.1403381484       -4.7554312381
 AR        12.2738439612       -1.7058983467       12.9622486200
 AR        -0.4218518064      -11.1177490353       20.4545363333
 AR         2.2819434170        5.9208391754      -11.1732449878
 AR       -13.9648466918        8.7792388576        8.0737337048
 AR       -10.3147439499        6.3852956124      -15.3411964215
 AR        -2.7189996465      -21.4890074469       10.8678096819
 AR       -17.7923879123      -10.7840901151       -4.8395499652
 AR         5.2349413851       -6.7922290679       -6.0718769081
 AR         3.5244875064      -10.1225951872        2.9682904866
 AR       -16.1586602902       -5.1827431639        8.5707269408
 AR        -5.8098282442        4.3264019350        2.5559910187
 AR         6.2916010908       27.5741337288       15.0246410590
 AR        -3.1874171171       23.2996469100      -16.8034854143
 AR        -4.2022575504        9.3603772594       16.5891306155
 AR        -7.6439290875       -9.5243238441      -29.8228731471
 AR         0.5453525258       13.9240554617       -0.3837867803
 AR        -5.2743288681       -5.5381378179      -20.3014703747
 AR        22.9921850153        6.7861937167       -1.9828990529
 AR        19.7720034229      -10.2373337687       -3.3308181857
 AR         0.1567769029        6.5963011811        8.9074906251
 AR         5.5793738186        0.2331062231        1.0275228782
 AR        -3.6434356180        3.9644888101       25.8752124557
 AR        -0.2484916981       20.4489725648       -2.5122044535
 AR         2.9362670860        0.8598122134        9.9674330724
 AR         3.3038431569       -2.9242126659       -6.3492704237
 AR        -6.1549023524       -6.8496148008       -6.4620414461
 AR       -23.2388291762      -28.1213094673        7.1372104719
 AR         4.1152629133        2.7156414337       -0.8520300437
 AR        14.6194148692        2.8081518226        1.9360197598
 AR        18.9667954753       16.5700888519       13.3423444868
 AR       -28.6124161417        2.8435363708       -9.2360197333
 AR        -5.9700459456      -16.2230172568       -9.2292806184
 AR        10.0481077883       16.3854819570        5.1257871135
 AR        -7.2250850783        6.3461542223       -0.6807574637
 AR       -12.0138912984      -10.4653110277       -6.4343478758
 AR        -8.5316992690       12.8976589213       -0.8903612524
 AR       -25.3700692951        3.3311990643       -7.9391768568
 AR         2.9016348064      -12.9668181360       -7.9490775926
 AR       -13.5963940986       11.9896580952       -3.5506875487
 AR        13.1416029517        4.9714378345       -3.5084125273
 AR       -13.3295460956       16.0410015778        7.0528279758
 AR        -4.1506833549      -19.5111913798       21.0255971828
 AR        -8.4294427082       16.3065160594      -18.2887817285
 AR         0.7886363339        9.5901683682       22.1772606194
 AR        -2.9260677863       -7.9740805489      -21.3519900334
 AR        -6.3995986598       -4.5628046180        2.7553357109
 AR        -4.0442387809      -14.9275965394       -5.5856147374
 AR       -27.8524912514        0.8020521807       -3.0266378971
 AR        -2.8396652965        7.1162712125        6.1854733276
 AR        -8.6832788761       -6.6708830049       -9.1581545022
 AR       -11.9620847111       -2.2095624961       -1.8397997537
 AR        22.6848553724       12.2047209420        1.0123879784
 AR         6.2950101204       -0.7697124713       -6.9145433225
 AR         3.4999554679       -8.0070492014       -0.4265266319
 AR         0.3851548123       17.8769740351      -17.4065226240
 AR        21.2288869131       10.2327102036      -13.0872200859
 AR         1.2208258700        5.8359743507       16.8450099267
 AR        -7.0875403622        6.0341297186      -22.3251445580
 AR        -0.0244265849       17.4693605251        7.3711673097
 AR        15.0981822679        9.8894051625       -8.4938274014
 AR        -6.5787768834      -15.0484532075       14.7230359830
 AR        -2.2266666663       -4.1842190033       -2.4700788711
 AR         5.2062106985      -22.6565181989        7.3947567481
 AR        -8.8582880041       -2.4751066199        2.3544139853
 AR         6.7520235454        0.4303913836        5.4349249526
 AR        11.9263127546        8.1326725415        2.4008113296
 AR       -14.5507562394       -0.4715406772      -13.7058431105
 AR        14.1157692422       -2.9896859318       24.6842798176
 AR        -3.3510733620       -0.6813625467       -7.3703991683
 AR         7.7926987644        3.3068761509       -0.0732378021
 AR        -1.1328905910      -17.1672835836      -12.9126466372
 AR        -9.2105434952      -10.4846510043       -8.3848579779
 AR        -6.4784877796       -3.9073665308      -10.6499668410
 AR         0.9878749792       13.7363585341        5.0720965980
 AR         8.8609781479        9.9610388779        1.0937379580
 AR        -6.5806876684      -20.4019345282       -7.2893560818
 AR        -0.4489770627       19.5862520160       11.0351198969
 AR         7.3605693747       -2.6959428168        7.2608187460
 AR        13.8791344547       12.1903465249        1.2488988544
 AR        -3.6578275372       19.7829061762      -11.8161510230
 AR         1.4972945094       -5.3928997725        1.9244584967
 AR        18.5861605634        3.0086836640        2.0644013101
 AR         6.2073076798       -9.4741839882        5.5493050775
 AR         3.6505483789        3.4318105413       -4.3116081362
 AR         2.6786261646        2.2930060515        5.9850296215
 AR        24.5113122275        4.0073317098       13.1412501215
 AR        -0.6002332620        3.6282563137        6.3841128472
